/*--------------------------------*- C++ -*----------------------------------*\
|       ______          _   __           ______                               |
|      / ____/  ___    / | / /          / ____/  ____   ____ _   ____ ___     |
|     / / __   / _ \  /  |/ /  ______  / /_     / __ \ / __ `/  / __ `__ \    |
|    / /_/ /  /  __/ / /|  /  /_____/ / __/    / /_/ // /_/ /  / / / / / /    |
|    \____/   \___/ /_/ |_/          /_/       \____/ \__,_/  /_/ /_/ /_/     |
|    Copyright (C) 2015 - 2022 EPFL                                           |
\*---------------------------------------------------------------------------*/
FoamFile
{
    version     2.0;
    format      ascii;
    class       dictionary;
    object      msfr_n_res;
}
// * * * * * * * * * * * * * * * * * * * * * * * * * * * * * * * * * * * * * //

fastNeutrons            true; // if true interpolates cross section with logarithmic temp for fuel (otherwise, square root)

adjustDiscFactors       false;

// groupsWoDF              (0 1 2 3 4 5 6 7 8 9 14 15 16 17 18 19 20 21 22 23);

useGivenDiscFactors     false;

// doNotParametrize        ();

energyGroups    6;

precGroups      8;

// ScNo 1; This can be used to set the Schmidt number for diffusion of precursors

xsVariables
{
    TFuel       log;
    rhoCool     lin;
}

states
(
    reference
    {
        TFuel   900;
        rhoCool 4125;

        zones
        (
            hx
            {
                fuelFraction 1.000000e+00;
                IV  nonuniform List<scalar> 6 (3.988170e-08 7.534280e-08 2.704870e-07 6.649970e-07 1.821890e-06 6.581960e-06  );
                D   nonuniform List<scalar> 6 (2.372010e-02 1.578890e-02 1.002350e-02 1.208420e-02 1.153360e-02 1.103830e-02  );
                nuSigmaEff nonuniform List<scalar> 6 (5.755480e-01 3.754540e-01 4.108380e-01 6.229680e-01 1.466770e+00 4.758780e+00  );
                sigmaPow nonuniform List<scalar> 6 (6.724365e-12 4.680294e-12 5.246877e-12 7.979881e-12 1.879635e-11 6.102401e-11  );
                scatteringMatrixP0  6  6 (
                    ( 1.312560e+01  5.838320e+00  6.724490e-01  4.118070e-03  3.011400e-04  2.296820e-06 )
                    ( 0.000000e+00  2.149700e+01  3.723990e+00  6.078690e-03  4.411220e-04  3.081830e-06 )
                    ( 0.000000e+00  0.000000e+00  3.414890e+01  1.416480e+00  2.841550e-03  2.636100e-05 )
                    ( 0.000000e+00  0.000000e+00  0.000000e+00  2.658780e+01  1.286940e+00  0.000000e+00 )
                    ( 0.000000e+00  0.000000e+00  0.000000e+00  0.000000e+00  2.814060e+01  2.109190e-01 )
                    ( 0.000000e+00  0.000000e+00  0.000000e+00  0.000000e+00  0.000000e+00  2.751690e+01 )
                );
                sigmaRemoval nonuniform List<scalar> 6 (6.899700e+00 3.955500e+00 1.774100e+00 1.983400e+00 1.637700e+00 3.566300e+00  );
                chiPrompt nonuniform List<scalar> 6 (3.621770e-01 5.174630e-01 1.188660e-01 1.337660e-03 1.553520e-04 1.397960e-06  );
                chiDelayed nonuniform List<scalar> 6 (3.616550e-03 3.713560e-01 5.972450e-01 2.413250e-02 3.584380e-03 6.577530e-05  );
                Beta nonuniform List<scalar> 8 (2.114580e-04 4.231390e-04 3.737000e-04 5.789020e-04 8.929690e-04 1.426090e-04 1.926010e-04 3.738980e-05  );
                lambda nonuniform List<scalar> 8 (1.246670e-02 2.829170e-02 4.252440e-02 1.330420e-01 2.924670e-01 6.664880e-01 1.634780e+00 3.099610e+00  );
                discFactor nonuniform List<scalar> 6 (1 1 1 1 1 1  );
                integralFlux nonuniform List<scalar> 6 (1.000000e+00 1.000000e+00 1.000000e+00 1.000000e+00 1.000000e+00 1.000000e+00  );
            }
            intermed
            {
                fuelFraction 1.000000e+00 ;
                IV nonuniform List<scalar> 6 (3.988170e-08 7.534280e-08 2.704870e-07 6.649970e-07 1.821890e-06 6.581960e-06  );
                D nonuniform List<scalar> 6 (2.372010e-02 1.578890e-02 1.002350e-02 1.208420e-02 1.153360e-02 1.103830e-02  );
                nuSigmaEff nonuniform List<scalar> 6 (5.755480e-01 3.754540e-01 4.108380e-01 6.229680e-01 1.466770e+00 4.758780e+00  );
                sigmaPow nonuniform List<scalar> 6 (6.724365e-12 4.680294e-12 5.246877e-12 7.979881e-12 1.879635e-11 6.102401e-11  );
                scatteringMatrixP0  6  6 (
                ( 1.312560e+01  5.838320e+00  6.724490e-01  4.118070e-03  3.011400e-04  2.296820e-06 )
                ( 0.000000e+00  2.149700e+01  3.723990e+00  6.078690e-03  4.411220e-04  3.081830e-06 )
                ( 0.000000e+00  0.000000e+00  3.414890e+01  1.416480e+00  2.841550e-03  2.636100e-05 )
                ( 0.000000e+00  0.000000e+00  0.000000e+00  2.658780e+01  1.286940e+00  0.000000e+00 )
                ( 0.000000e+00  0.000000e+00  0.000000e+00  0.000000e+00  2.814060e+01  2.109190e-01 )
                ( 0.000000e+00  0.000000e+00  0.000000e+00  0.000000e+00  0.000000e+00  2.751690e+01 )
                );
                sigmaRemoval nonuniform List<scalar> 6 (6.899700e+00 3.955500e+00 1.774100e+00 1.983400e+00 1.637700e+00 3.566300e+00  );
                chiPrompt nonuniform List<scalar> 6 (3.621770e-01 5.174630e-01 1.188660e-01 1.337660e-03 1.553520e-04 1.397960e-06  );
                chiDelayed nonuniform List<scalar> 6 (3.616550e-03 3.713560e-01 5.972450e-01 2.413250e-02 3.584380e-03 6.577530e-05  );
                Beta nonuniform List<scalar> 8 (2.114580e-04 4.231390e-04 3.737000e-04 5.789020e-04 8.929690e-04 1.426090e-04 1.926010e-04 3.738980e-05  );
                lambda nonuniform List<scalar> 8 (1.246670e-02 2.829170e-02 4.252440e-02 1.330420e-01 2.924670e-01 6.664880e-01 1.634780e+00 3.099610e+00  );
                discFactor nonuniform List<scalar> 6 (1 1 1 1 1 1  );
                integralFlux nonuniform List<scalar> 6 (1.000000e+00 1.000000e+00 1.000000e+00 1.000000e+00 1.000000e+00 1.000000e+00  );
            }
            main_fd
            {
                fuelFraction 1.000000e+00 ;
                IV nonuniform List<scalar> 6 (3.988170e-08 7.534280e-08 2.704870e-07 6.649970e-07 1.821890e-06 6.581960e-06  );
                D nonuniform List<scalar> 6 (2.372010e-02 1.578890e-02 1.002350e-02 1.208420e-02 1.153360e-02 1.103830e-02  );
                nuSigmaEff nonuniform List<scalar> 6 (5.755480e-01 3.754540e-01 4.108380e-01 6.229680e-01 1.466770e+00 4.758780e+00  );
                sigmaPow nonuniform List<scalar> 6 (6.724365e-12 4.680294e-12 5.246877e-12 7.979881e-12 1.879635e-11 6.102401e-11  );
                scatteringMatrixP0  6  6 (
                ( 1.312560e+01  5.838320e+00  6.724490e-01  4.118070e-03  3.011400e-04  2.296820e-06 )
                ( 0.000000e+00  2.149700e+01  3.723990e+00  6.078690e-03  4.411220e-04  3.081830e-06 )
                ( 0.000000e+00  0.000000e+00  3.414890e+01  1.416480e+00  2.841550e-03  2.636100e-05 )
                ( 0.000000e+00  0.000000e+00  0.000000e+00  2.658780e+01  1.286940e+00  0.000000e+00 )
                ( 0.000000e+00  0.000000e+00  0.000000e+00  0.000000e+00  2.814060e+01  2.109190e-01 )
                ( 0.000000e+00  0.000000e+00  0.000000e+00  0.000000e+00  0.000000e+00  2.751690e+01 )
                );
                sigmaRemoval nonuniform List<scalar> 6 (6.899700e+00 3.955500e+00 1.774100e+00 1.983400e+00 1.637700e+00 3.566300e+00  );
                chiPrompt nonuniform List<scalar> 6 (3.621770e-01 5.174630e-01 1.188660e-01 1.337660e-03 1.553520e-04 1.397960e-06  );
                chiDelayed nonuniform List<scalar> 6 (3.616550e-03 3.713560e-01 5.972450e-01 2.413250e-02 3.584380e-03 6.577530e-05  );
                Beta nonuniform List<scalar> 8 (2.114580e-04 4.231390e-04 3.737000e-04 5.789020e-04 8.929690e-04 1.426090e-04 1.926010e-04 3.738980e-05  );
                lambda nonuniform List<scalar> 8 (1.246670e-02 2.829170e-02 4.252440e-02 1.330420e-01 2.924670e-01 6.664880e-01 1.634780e+00 3.099610e+00  );
                discFactor nonuniform List<scalar> 6 (1 1 1 1 1 1  );
                integralFlux nonuniform List<scalar> 6 (1.000000e+00 1.000000e+00 1.000000e+00 1.000000e+00 1.000000e+00 1.000000e+00  );
            }
            pump
            {
                fuelFraction 1.000000e+00 ;
                IV nonuniform List<scalar> 6 (3.988170e-08 7.534280e-08 2.704870e-07 6.649970e-07 1.821890e-06 6.581960e-06  );
                D nonuniform List<scalar> 6 (2.372010e-02 1.578890e-02 1.002350e-02 1.208420e-02 1.153360e-02 1.103830e-02  );
                nuSigmaEff nonuniform List<scalar> 6 (5.755480e-01 3.754540e-01 4.108380e-01 6.229680e-01 1.466770e+00 4.758780e+00  );
                sigmaPow nonuniform List<scalar> 6 (6.724365e-12 4.680294e-12 5.246877e-12 7.979881e-12 1.879635e-11 6.102401e-11  );
                scatteringMatrixP0  6  6 (
                ( 1.312560e+01  5.838320e+00  6.724490e-01  4.118070e-03  3.011400e-04  2.296820e-06 )
                ( 0.000000e+00  2.149700e+01  3.723990e+00  6.078690e-03  4.411220e-04  3.081830e-06 )
                ( 0.000000e+00  0.000000e+00  3.414890e+01  1.416480e+00  2.841550e-03  2.636100e-05 )
                ( 0.000000e+00  0.000000e+00  0.000000e+00  2.658780e+01  1.286940e+00  0.000000e+00 )
                ( 0.000000e+00  0.000000e+00  0.000000e+00  0.000000e+00  2.814060e+01  2.109190e-01 )
                ( 0.000000e+00  0.000000e+00  0.000000e+00  0.000000e+00  0.000000e+00  2.751690e+01 )
                );
                sigmaRemoval nonuniform List<scalar> 6 (6.899700e+00 3.955500e+00 1.774100e+00 1.983400e+00 1.637700e+00 3.566300e+00  );
                chiPrompt nonuniform List<scalar> 6 (3.621770e-01 5.174630e-01 1.188660e-01 1.337660e-03 1.553520e-04 1.397960e-06  );
                chiDelayed nonuniform List<scalar> 6 (3.616550e-03 3.713560e-01 5.972450e-01 2.413250e-02 3.584380e-03 6.577530e-05  );
                Beta nonuniform List<scalar> 8 (2.114580e-04 4.231390e-04 3.737000e-04 5.789020e-04 8.929690e-04 1.426090e-04 1.926010e-04 3.738980e-05  );
                lambda nonuniform List<scalar> 8 (1.246670e-02 2.829170e-02 4.252440e-02 1.330420e-01 2.924670e-01 6.664880e-01 1.634780e+00 3.099610e+00  );
                discFactor nonuniform List<scalar> 6 (1 1 1 1 1 1  );
                integralFlux nonuniform List<scalar> 6 (1.000000e+00 1.000000e+00 1.000000e+00 1.000000e+00 1.000000e+00 1.000000e+00  );
            }
        );
    }

    TFuel1500K
    {
        TFuel   1500;

        zones
        (
            hx
            {
                IV nonuniform List<scalar> 6 (3.988410e-08 7.534390e-08 2.704790e-07 6.649750e-07 1.805400e-06 6.507980e-06  );
                D nonuniform List<scalar> 6 (2.372560e-02 1.578820e-02 1.002270e-02 1.208460e-02 1.145170e-02 1.090920e-02  );
                nuSigmaEff nonuniform List<scalar> 6 (5.755790e-01 3.754490e-01 4.108360e-01 6.229530e-01 1.455370e+00 4.718810e+00  );
                sigmaPow nonuniform List<scalar> 6 (6.724778e-12 4.680206e-12 5.246818e-12 7.979649e-12 1.865038e-11 6.051075e-11  );
                scatteringMatrixP0  6  6 (
                    ( 1.312580e+01  5.840810e+00  6.705100e-01  4.143700e-03  3.155400e-04  3.828890e-06 )
                    ( 0.000000e+00  2.149740e+01  3.723940e+00  6.097290e-03  4.405410e-04  2.316910e-06 )
                    ( 0.000000e+00  0.000000e+00  3.415090e+01  1.416520e+00  2.863910e-03  2.514240e-05 )
                    ( 0.000000e+00  0.000000e+00  0.000000e+00  2.658770e+01  1.286310e+00  0.000000e+00 )
                    ( 0.000000e+00  0.000000e+00  0.000000e+00  0.000000e+00  2.832330e+01  1.957000e-01 )
                    ( 0.000000e+00  0.000000e+00  0.000000e+00  0.000000e+00  0.000000e+00  2.771810e+01 )
                );
                sigmaRemoval nonuniform List<scalar> 6 (6.900200e+00 3.955400e+00 1.774400e+00 1.983500e+00 1.664500e+00 3.731000e+00  );
                chiPrompt nonuniform List<scalar> 6 (3.622200e-01 5.174810e-01 1.188120e-01 1.332280e-03 1.522850e-04 1.557980e-06  );
                chiDelayed nonuniform List<scalar> 6 (3.372660e-03 3.690890e-01 5.993440e-01 2.431480e-02 3.788250e-03 9.070150e-05  );
                Beta nonuniform List<scalar> 8 (2.167320e-04 4.374290e-04 3.832040e-04 5.866200e-04 9.274450e-04 1.415290e-04 2.007940e-04 4.086550e-05  );
                lambda nonuniform List<scalar> 8 (1.246670e-02 2.829170e-02 4.252440e-02 1.330420e-01 2.924670e-01 6.664880e-01 1.634780e+00 3.192030e+00  );
                discFactor nonuniform List<scalar> 6 (1 1 1 1 1 1  );
                integralFlux nonuniform List<scalar> 6 (1.000000e+00 1.000000e+00 1.000000e+00 1.000000e+00 1.000000e+00 1.000000e+00  );
            }
            intermed
            {
                IV nonuniform List<scalar> 6 (3.988410e-08 7.534390e-08 2.704790e-07 6.649750e-07 1.805400e-06 6.507980e-06  );
                D nonuniform List<scalar> 6 (2.372560e-02 1.578820e-02 1.002270e-02 1.208460e-02 1.145170e-02 1.090920e-02  );
                nuSigmaEff nonuniform List<scalar> 6 (5.755790e-01 3.754490e-01 4.108360e-01 6.229530e-01 1.455370e+00 4.718810e+00  );
                sigmaPow nonuniform List<scalar> 6 (6.724778e-12 4.680206e-12 5.246818e-12 7.979649e-12 1.865038e-11 6.051075e-11  );
                scatteringMatrixP0  6  6 (
                    ( 1.312580e+01  5.840810e+00  6.705100e-01  4.143700e-03  3.155400e-04  3.828890e-06 )
                    ( 0.000000e+00  2.149740e+01  3.723940e+00  6.097290e-03  4.405410e-04  2.316910e-06 )
                    ( 0.000000e+00  0.000000e+00  3.415090e+01  1.416520e+00  2.863910e-03  2.514240e-05 )
                    ( 0.000000e+00  0.000000e+00  0.000000e+00  2.658770e+01  1.286310e+00  0.000000e+00 )
                    ( 0.000000e+00  0.000000e+00  0.000000e+00  0.000000e+00  2.832330e+01  1.957000e-01 )
                    ( 0.000000e+00  0.000000e+00  0.000000e+00  0.000000e+00  0.000000e+00  2.771810e+01 )
                );
                sigmaRemoval nonuniform List<scalar> 6 (6.900200e+00 3.955400e+00 1.774400e+00 1.983500e+00 1.664500e+00 3.731000e+00  );
                chiPrompt nonuniform List<scalar> 6 (3.622200e-01 5.174810e-01 1.188120e-01 1.332280e-03 1.522850e-04 1.557980e-06  );
                chiDelayed nonuniform List<scalar> 6 (3.372660e-03 3.690890e-01 5.993440e-01 2.431480e-02 3.788250e-03 9.070150e-05  );
                Beta nonuniform List<scalar> 8 (2.167320e-04 4.374290e-04 3.832040e-04 5.866200e-04 9.274450e-04 1.415290e-04 2.007940e-04 4.086550e-05  );
                lambda nonuniform List<scalar> 8 (1.246670e-02 2.829170e-02 4.252440e-02 1.330420e-01 2.924670e-01 6.664880e-01 1.634780e+00 3.192030e+00  );
                discFactor nonuniform List<scalar> 6 (1 1 1 1 1 1  );
                integralFlux nonuniform List<scalar> 6 (1.000000e+00 1.000000e+00 1.000000e+00 1.000000e+00 1.000000e+00 1.000000e+00  );
            }
            pump
            {
                IV nonuniform List<scalar> 6 (3.988410e-08 7.534390e-08 2.704790e-07 6.649750e-07 1.805400e-06 6.507980e-06  );
                D nonuniform List<scalar> 6 (2.372560e-02 1.578820e-02 1.002270e-02 1.208460e-02 1.145170e-02 1.090920e-02  );
                nuSigmaEff nonuniform List<scalar> 6 (5.755790e-01 3.754490e-01 4.108360e-01 6.229530e-01 1.455370e+00 4.718810e+00  );
                sigmaPow nonuniform List<scalar> 6 (6.724778e-12 4.680206e-12 5.246818e-12 7.979649e-12 1.865038e-11 6.051075e-11  );
                scatteringMatrixP0 6  6 (
                    ( 1.312580e+01  5.840810e+00  6.705100e-01  4.143700e-03  3.155400e-04  3.828890e-06 )
                    ( 0.000000e+00  2.149740e+01  3.723940e+00  6.097290e-03  4.405410e-04  2.316910e-06 )
                    ( 0.000000e+00  0.000000e+00  3.415090e+01  1.416520e+00  2.863910e-03  2.514240e-05 )
                    ( 0.000000e+00  0.000000e+00  0.000000e+00  2.658770e+01  1.286310e+00  0.000000e+00 )
                    ( 0.000000e+00  0.000000e+00  0.000000e+00  0.000000e+00  2.832330e+01  1.957000e-01 )
                    ( 0.000000e+00  0.000000e+00  0.000000e+00  0.000000e+00  0.000000e+00  2.771810e+01 )
                );
                sigmaRemoval nonuniform List<scalar> 6 (6.900200e+00 3.955400e+00 1.774400e+00 1.983500e+00 1.664500e+00 3.731000e+00  );
                chiPrompt nonuniform List<scalar> 6 (3.622200e-01 5.174810e-01 1.188120e-01 1.332280e-03 1.522850e-04 1.557980e-06  );
                chiDelayed nonuniform List<scalar> 6 (3.372660e-03 3.690890e-01 5.993440e-01 2.431480e-02 3.788250e-03 9.070150e-05  );
                Beta nonuniform List<scalar> 8 (2.167320e-04 4.374290e-04 3.832040e-04 5.866200e-04 9.274450e-04 1.415290e-04 2.007940e-04 4.086550e-05  );
                lambda nonuniform List<scalar> 8 (1.246670e-02 2.829170e-02 4.252440e-02 1.330420e-01 2.924670e-01 6.664880e-01 1.634780e+00 3.192030e+00  );
                discFactor nonuniform List<scalar> 6 (1 1 1 1 1 1  );
                integralFlux nonuniform List<scalar> 6 (1.000000e+00 1.000000e+00 1.000000e+00 1.000000e+00 1.000000e+00 1.000000e+00  );
            }
            main_fd
            {
                IV nonuniform List<scalar> 6 (3.988410e-08 7.534390e-08 2.704790e-07 6.649750e-07 1.805400e-06 6.507980e-06  );
                D nonuniform List<scalar> 6 (2.372560e-02 1.578820e-02 1.002270e-02 1.208460e-02 1.145170e-02 1.090920e-02  );
                nuSigmaEff nonuniform List<scalar> 6 (5.755790e-01 3.754490e-01 4.108360e-01 6.229530e-01 1.455370e+00 4.718810e+00  );
                sigmaPow nonuniform List<scalar> 6 (6.724778e-12 4.680206e-12 5.246818e-12 7.979649e-12 1.865038e-11 6.051075e-11  );
                scatteringMatrixP0  6  6 (
                    ( 1.312580e+01  5.840810e+00  6.705100e-01  4.143700e-03  3.155400e-04  3.828890e-06 )
                    ( 0.000000e+00  2.149740e+01  3.723940e+00  6.097290e-03  4.405410e-04  2.316910e-06 )
                    ( 0.000000e+00  0.000000e+00  3.415090e+01  1.416520e+00  2.863910e-03  2.514240e-05 )
                    ( 0.000000e+00  0.000000e+00  0.000000e+00  2.658770e+01  1.286310e+00  0.000000e+00 )
                    ( 0.000000e+00  0.000000e+00  0.000000e+00  0.000000e+00  2.832330e+01  1.957000e-01 )
                    ( 0.000000e+00  0.000000e+00  0.000000e+00  0.000000e+00  0.000000e+00  2.771810e+01 )
                );
                sigmaRemoval nonuniform List<scalar> 6 (6.900200e+00 3.955400e+00 1.774400e+00 1.983500e+00 1.664500e+00 3.731000e+00  );
                chiPrompt nonuniform List<scalar> 6 (3.622200e-01 5.174810e-01 1.188120e-01 1.332280e-03 1.522850e-04 1.557980e-06  );
                chiDelayed nonuniform List<scalar> 6 (3.372660e-03 3.690890e-01 5.993440e-01 2.431480e-02 3.788250e-03 9.070150e-05  );
                Beta nonuniform List<scalar> 8 (2.167320e-04 4.374290e-04 3.832040e-04 5.866200e-04 9.274450e-04 1.415290e-04 2.007940e-04 4.086550e-05  );
                lambda nonuniform List<scalar> 8 (1.246670e-02 2.829170e-02 4.252440e-02 1.330420e-01 2.924670e-01 6.664880e-01 1.634780e+00 3.192030e+00  );
                discFactor nonuniform List<scalar> 6 (1 1 1 1 1 1  );
                integralFlux nonuniform List<scalar> 6 (1.000000e+00 1.000000e+00 1.000000e+00 1.000000e+00 1.000000e+00 1.000000e+00  );
            }
        );
    }

    rhoCool3419kgm3
    {
        rhoCool 3419;

        zones
        (
            hx
            {
                IV nonuniform List<scalar> 6 (3.988370e-08 7.534040e-08 2.704860e-07 6.649820e-07 1.821650e-06 6.580100e-06  );
                D nonuniform List<scalar> 6 (2.862190e-02 1.904590e-02 1.209190e-02 1.457810e-02 1.391220e-02 1.331760e-02  );
                nuSigmaEff nonuniform List<scalar> 6 (4.770880e-01 3.112370e-01 3.405600e-01 5.163940e-01 1.215720e+00 3.944140e+00  );
                sigmaPow nonuniform List<scalar> 6 (5.574122e-12 3.879768e-12 4.349346e-12 6.614719e-12 1.557924e-11 5.057750e-11  );
                scatteringMatrixP0  6  6 (
                ( 1.088230e+01  4.841070e+00  5.555620e-01  3.415480e-03  2.304460e-04  4.438530e-06 )
                ( 0.000000e+00  1.781960e+01  3.087420e+00  5.097700e-03  3.708720e-04  2.075340e-06 )
                ( 0.000000e+00  0.000000e+00  2.830780e+01  1.174030e+00  2.345250e-03  2.310370e-05 )
                ( 0.000000e+00  0.000000e+00  0.000000e+00  2.203980e+01  1.066380e+00  0.000000e+00 )
                ( 0.000000e+00  0.000000e+00  0.000000e+00  0.000000e+00  2.332680e+01  1.751280e-01 )
                ( 0.000000e+00  0.000000e+00  0.000000e+00  0.000000e+00  0.000000e+00  2.280960e+01 )
                );
                sigmaRemoval nonuniform List<scalar> 6 (5.718000e+00 3.279100e+00 1.470400e+00 1.644000e+00 1.357700e+00 2.954500e+00  );
                chiPrompt nonuniform List<scalar> 6 (3.621430e-01 5.175020e-01 1.188720e-01 1.328820e-03 1.520840e-04 1.479490e-06  );
                chiDelayed nonuniform List<scalar> 6 (3.184720e-03 3.698860e-01 5.983040e-01 2.525020e-02 3.283340e-03 9.107870e-05  );
                Beta nonuniform List<scalar> 8 (2.172400e-04 4.225900e-04 3.700800e-04 5.736500e-04 9.062950e-04 1.368960e-04 1.976220e-04 3.989810e-05  );
                lambda nonuniform List<scalar> 8 (1.246670e-02 2.829170e-02 4.252440e-02 1.330420e-01 2.924670e-01 6.664880e-01 1.634780e+00 3.092500e+00  );
                discFactor nonuniform List<scalar> 6 (1 1 1 1 1 1  );
                integralFlux nonuniform List<scalar> 6 (1.000000e+00 1.000000e+00 1.000000e+00 1.000000e+00 1.000000e+00 1.000000e+00  );
            }
            intermed
            {
                IV nonuniform List<scalar> 6 (3.988370e-08 7.534040e-08 2.704860e-07 6.649820e-07 1.821650e-06 6.580100e-06  );
                D nonuniform List<scalar> 6 (2.862190e-02 1.904590e-02 1.209190e-02 1.457810e-02 1.391220e-02 1.331760e-02  );
                nuSigmaEff nonuniform List<scalar> 6 (4.770880e-01 3.112370e-01 3.405600e-01 5.163940e-01 1.215720e+00 3.944140e+00  );
                sigmaPow nonuniform List<scalar> 6 (5.574122e-12 3.879768e-12 4.349346e-12 6.614719e-12 1.557924e-11 5.057750e-11  );
                scatteringMatrixP0  6  6 (
                ( 1.088230e+01  4.841070e+00  5.555620e-01  3.415480e-03  2.304460e-04  4.438530e-06 )
                ( 0.000000e+00  1.781960e+01  3.087420e+00  5.097700e-03  3.708720e-04  2.075340e-06 )
                ( 0.000000e+00  0.000000e+00  2.830780e+01  1.174030e+00  2.345250e-03  2.310370e-05 )
                ( 0.000000e+00  0.000000e+00  0.000000e+00  2.203980e+01  1.066380e+00  0.000000e+00 )
                ( 0.000000e+00  0.000000e+00  0.000000e+00  0.000000e+00  2.332680e+01  1.751280e-01 )
                ( 0.000000e+00  0.000000e+00  0.000000e+00  0.000000e+00  0.000000e+00  2.280960e+01 )
                );
                sigmaRemoval nonuniform List<scalar> 6 (5.718000e+00 3.279100e+00 1.470400e+00 1.644000e+00 1.357700e+00 2.954500e+00  );
                chiPrompt nonuniform List<scalar> 6 (3.621430e-01 5.175020e-01 1.188720e-01 1.328820e-03 1.520840e-04 1.479490e-06  );
                chiDelayed nonuniform List<scalar> 6 (3.184720e-03 3.698860e-01 5.983040e-01 2.525020e-02 3.283340e-03 9.107870e-05  );
                Beta nonuniform List<scalar> 8 (2.172400e-04 4.225900e-04 3.700800e-04 5.736500e-04 9.062950e-04 1.368960e-04 1.976220e-04 3.989810e-05  );
                lambda nonuniform List<scalar> 8 (1.246670e-02 2.829170e-02 4.252440e-02 1.330420e-01 2.924670e-01 6.664880e-01 1.634780e+00 3.092500e+00  );
                discFactor nonuniform List<scalar> 6 (1 1 1 1 1 1  );
                integralFlux nonuniform List<scalar> 6 (1.000000e+00 1.000000e+00 1.000000e+00 1.000000e+00 1.000000e+00 1.000000e+00  );
            }
            pump
            {
                IV nonuniform List<scalar> 6 (3.988370e-08 7.534040e-08 2.704860e-07 6.649820e-07 1.821650e-06 6.580100e-06  );
                D nonuniform List<scalar> 6 (2.862190e-02 1.904590e-02 1.209190e-02 1.457810e-02 1.391220e-02 1.331760e-02  );
                nuSigmaEff nonuniform List<scalar> 6 (4.770880e-01 3.112370e-01 3.405600e-01 5.163940e-01 1.215720e+00 3.944140e+00  );
                sigmaPow nonuniform List<scalar> 6 (5.574122e-12 3.879768e-12 4.349346e-12 6.614719e-12 1.557924e-11 5.057750e-11  );
                scatteringMatrixP0  6  6 (
                ( 1.088230e+01  4.841070e+00  5.555620e-01  3.415480e-03  2.304460e-04  4.438530e-06 )
                ( 0.000000e+00  1.781960e+01  3.087420e+00  5.097700e-03  3.708720e-04  2.075340e-06 )
                ( 0.000000e+00  0.000000e+00  2.830780e+01  1.174030e+00  2.345250e-03  2.310370e-05 )
                ( 0.000000e+00  0.000000e+00  0.000000e+00  2.203980e+01  1.066380e+00  0.000000e+00 )
                ( 0.000000e+00  0.000000e+00  0.000000e+00  0.000000e+00  2.332680e+01  1.751280e-01 )
                ( 0.000000e+00  0.000000e+00  0.000000e+00  0.000000e+00  0.000000e+00  2.280960e+01 )
                );
                sigmaRemoval nonuniform List<scalar> 6 (5.718000e+00 3.279100e+00 1.470400e+00 1.644000e+00 1.357700e+00 2.954500e+00  );
                chiPrompt nonuniform List<scalar> 6 (3.621430e-01 5.175020e-01 1.188720e-01 1.328820e-03 1.520840e-04 1.479490e-06  );
                chiDelayed nonuniform List<scalar> 6 (3.184720e-03 3.698860e-01 5.983040e-01 2.525020e-02 3.283340e-03 9.107870e-05  );
                Beta nonuniform List<scalar> 8 (2.172400e-04 4.225900e-04 3.700800e-04 5.736500e-04 9.062950e-04 1.368960e-04 1.976220e-04 3.989810e-05  );
                lambda nonuniform List<scalar> 8 (1.246670e-02 2.829170e-02 4.252440e-02 1.330420e-01 2.924670e-01 6.664880e-01 1.634780e+00 3.092500e+00  );
                discFactor nonuniform List<scalar> 6 (1 1 1 1 1 1  );
                integralFlux nonuniform List<scalar> 6 (1.000000e+00 1.000000e+00 1.000000e+00 1.000000e+00 1.000000e+00 1.000000e+00  );
            }
            main_fd
            {
                IV nonuniform List<scalar> 6 (3.988370e-08 7.534040e-08 2.704860e-07 6.649820e-07 1.821650e-06 6.580100e-06  );
                D nonuniform List<scalar> 6 (2.862190e-02 1.904590e-02 1.209190e-02 1.457810e-02 1.391220e-02 1.331760e-02  );
                nuSigmaEff nonuniform List<scalar> 6 (4.770880e-01 3.112370e-01 3.405600e-01 5.163940e-01 1.215720e+00 3.944140e+00  );
                sigmaPow nonuniform List<scalar> 6 (5.574122e-12 3.879768e-12 4.349346e-12 6.614719e-12 1.557924e-11 5.057750e-11  );
                scatteringMatrixP0  6  6 (
                ( 1.088230e+01  4.841070e+00  5.555620e-01  3.415480e-03  2.304460e-04  4.438530e-06 )
                ( 0.000000e+00  1.781960e+01  3.087420e+00  5.097700e-03  3.708720e-04  2.075340e-06 )
                ( 0.000000e+00  0.000000e+00  2.830780e+01  1.174030e+00  2.345250e-03  2.310370e-05 )
                ( 0.000000e+00  0.000000e+00  0.000000e+00  2.203980e+01  1.066380e+00  0.000000e+00 )
                ( 0.000000e+00  0.000000e+00  0.000000e+00  0.000000e+00  2.332680e+01  1.751280e-01 )
                ( 0.000000e+00  0.000000e+00  0.000000e+00  0.000000e+00  0.000000e+00  2.280960e+01 )
                );
                sigmaRemoval nonuniform List<scalar> 6 (5.718000e+00 3.279100e+00 1.470400e+00 1.644000e+00 1.357700e+00 2.954500e+00  );
                chiPrompt nonuniform List<scalar> 6 (3.621430e-01 5.175020e-01 1.188720e-01 1.328820e-03 1.520840e-04 1.479490e-06  );
                chiDelayed nonuniform List<scalar> 6 (3.184720e-03 3.698860e-01 5.983040e-01 2.525020e-02 3.283340e-03 9.107870e-05  );
                Beta nonuniform List<scalar> 8 (2.172400e-04 4.225900e-04 3.700800e-04 5.736500e-04 9.062950e-04 1.368960e-04 1.976220e-04 3.989810e-05  );
                lambda nonuniform List<scalar> 8 (1.246670e-02 2.829170e-02 4.252440e-02 1.330420e-01 2.924670e-01 6.664880e-01 1.634780e+00 3.092500e+00  );
                discFactor nonuniform List<scalar> 6 (1 1 1 1 1 1  );
                integralFlux nonuniform List<scalar> 6 (1.000000e+00 1.000000e+00 1.000000e+00 1.000000e+00 1.000000e+00 1.000000e+00  );
            }
        );
    }
);

// ************************************************************************* //
