/*--------------------------------*- C++ -*----------------------------------*\
| =========                 |                                                 |
| \\      /  F ield         | OpenFOAM: The Open Source CFD Toolbox           |
|  \\    /   O peration     | Version:  v2406                                 |
|   \\  /    A nd           | Website:  www.openfoam.com                      |
|    \\/     M anipulation  |                                                 |
\*---------------------------------------------------------------------------*/
FoamFile
{
    version     2.0;
    format      ascii;
    class       dictionary;
    location    "system";
    object      setFieldsDict;
}
// * * * * * * * * * * * * * * * * * * * * * * * * * * * * * * * * * * * * * //

defaultFieldValues
(
    volScalarFieldValue DT 0.004
);

regions
(
    boxToCell
    {
        box (0.1 0.1 0) (0.3 0.3 0.1);
        fieldValues
        (
            volScalarFieldValue DT 0.04
        );
    }
    
    boxToCell
    {
        box (0.1 0.7 0) (0.3 0.9 0.1);
        fieldValues
        (
            volScalarFieldValue DT .0004
        );
    }
);


// ************************************************************************* //
